Version 4
SHEET 1 880 680
WIRE 240 -160 160 -160
WIRE 96 -112 0 -112
WIRE 224 -64 160 -64
WIRE 336 -64 304 -64
WIRE 448 -64 400 -64
WIRE 448 -32 448 -64
WIRE -80 64 -80 32
WIRE 112 80 48 80
WIRE 432 80 336 80
WIRE 512 80 432 80
WIRE 48 96 48 80
WIRE 512 96 512 80
WIRE 112 144 -16 144
WIRE 464 144 336 144
WIRE -80 176 -80 144
WIRE -80 176 -160 176
WIRE -80 208 -80 176
WIRE 64 208 32 208
WIRE 112 208 64 208
WIRE 448 208 336 208
WIRE 512 240 512 176
WIRE 112 272 80 272
WIRE -80 320 -80 288
WIRE -16 320 -16 144
WIRE -16 320 -80 320
WIRE -80 352 -80 320
WIRE -80 480 -80 416
WIRE -16 480 -16 320
WIRE 448 480 448 208
WIRE 448 480 -16 480
WIRE -160 528 -160 176
WIRE 464 528 464 144
WIRE 464 528 -160 528
FLAG 48 96 0
FLAG 512 240 0
FLAG 432 80 VCC
FLAG 80 272 VCC
FLAG -80 480 0
FLAG 64 208 OUT
FLAG 0 -112 OUT
FLAG 240 -160 VCC
FLAG 448 -32 0
FLAG -80 32 VCC
SYMBOL Misc\\NE555 224 176 R0
SYMATTR InstName U1
SYMBOL res -64 160 R180
WINDOW 0 36 76 Left 2
WINDOW 3 36 40 Left 2
SYMATTR InstName R1
SYMATTR Value 1K
SYMBOL LED 336 -48 R270
WINDOW 0 72 32 VTop 2
WINDOW 3 0 32 VBottom 2
SYMATTR InstName D1
SYMBOL res 320 -80 R90
WINDOW 0 0 56 VBottom 2
WINDOW 3 32 56 VTop 2
SYMATTR InstName R3
SYMATTR Value 220
SYMBOL npn 96 -160 R0
SYMATTR InstName Q1
SYMBOL voltage 512 80 R0
SYMATTR InstName V2
SYMATTR Value 9V
SYMBOL res -64 304 R180
WINDOW 0 36 76 Left 2
WINDOW 3 36 40 Left 2
SYMATTR InstName R2
SYMATTR Value 300K
SYMBOL cap -96 352 R0
SYMATTR InstName C1
SYMATTR Value 22µF
TEXT 168 32 Left 2 !.tran 20s
